data_xylitol
_space_group_crystal_system        'monoclinic'
_space_group_IT_number             4
_space_group_name_H-M_alt          'P 1 21 1'
_space_group_name_Hall             ' P 2yb'
loop_
  _space_group_symop_id
  _space_group_symop_operation_xyz
 1 x,y,z
 2 -x,y+1/2,-z
_cell_length_a                     7.7727(9)
_cell_length_b                     8.7216(11)
_cell_length_c                     10.8637(11)
_cell_angle_alpha                  90
_cell_angle_beta                   102.983(11)
_cell_angle_gamma                  90

loop_
  _atom_site_label
  _atom_site_type_symbol
  _atom_site_fract_x
  _atom_site_fract_y
  _atom_site_fract_z
  _atom_site_U_iso_or_equiv
  _atom_site_adp_type
  _atom_site_occupancy
  _atom_site_refinement_flags_posn
 O1 O -0.13158(16) 0.93520(15) 0.87730(11) 0.0225(3) Uani 1.000000 .
 O2 O -0.2139(2) 0.7885(2) 1.08133(12) 0.0357(4) Uani 1.000000 .
 H2 H -0.226(3) 0.8776(9) 1.1020(11) 0.0535(5) Uiso 1.000000 GR
 O3 O -0.1440(2) 0.52023(19) 0.84877(17) 0.0438(4) Uani 1.000000 .
 H3 H -0.0737(10) 0.4559(8) 0.835(3) 0.0657(6) Uiso 1.000000 GR
 O4 O 0.2025(2) 0.58590(19) 0.80885(14) 0.0382(4) Uani 1.000000 .
 H4 H 0.235(3) 0.569(2) 0.7434(7) 0.0573(6) Uiso 1.000000 GR
 O5 O 0.24735(17) 0.89796(18) 0.72868(12) 0.0281(3) Uani 1.000000 .
 H5 H 0.326(2) 0.955(3) 0.7651(9) 0.0421(5) Uiso 1.000000 GR
 O6 O -0.18367(14) 1.23930(16) 0.71221(11) 0.0222(3) Uani 1.000000 .
 O7 O -0.46056(18) 1.09540(19) 0.82658(13) 0.0345(3) Uani 1.000000 .
 H7 H -0.3606(4) 1.0594(9) 0.844(2) 0.0518(5) Uiso 1.000000 GR
 O8 O -0.58977(16) 1.23515(19) 0.47781(12) 0.0298(3) Uani 1.000000 .
 H8 H -0.600(2) 1.3250(8) 0.4972(14) 0.0448(5) Uiso 1.000000 GR
 O9 O -0.29551(16) 1.01639(17) 0.42577(11) 0.0255(3) Uani 1.000000 .
 H9 H -0.307(3) 0.9377(3) 0.4645(6) 0.0382(4) Uiso 1.000000 GR
 O10 O 0.12095(17) 1.09825(18) 0.52977(12) 0.0295(3) Uani 1.000000 .
 H10 H 0.158(3) 1.0230(13) 0.5728(8) 0.0442(5) Uiso 1.000000 GR
 O11 O -0.10861(15) 0.98678(14) 0.67115(10) 0.0188(3) Uani 1.000000 .
 C1 C -0.2046(2) 0.7821(2) 0.85925(15) 0.0232(4) Uani 1.000000 .
 H1 H -0.2807(2) 0.7739(2) 0.77437(15) 0.0348(6) Uiso 1.000000 R
 C2 C -0.3160(2) 0.7632(3) 0.95689(16) 0.0302(4) Uani 1.000000 .
 H2a H -0.3651(2) 0.6605(3) 0.95111(16) 0.0453(7) Uiso 1.000000 R
 H2b H -0.4134(2) 0.8355(3) 0.93915(16) 0.0453(7) Uiso 1.000000 R
 C3 C -0.0578(2) 0.6631(2) 0.87411(17) 0.0253(4) Uani 1.000000 .
 H3a H 0.0109(2) 0.6642(2) 0.96159(17) 0.0380(6) Uiso 1.000000 R
 C4 C 0.0648(2) 0.6984(2) 0.78538(16) 0.0239(4) Uani 1.000000 .
 H4a H -0.0013(2) 0.6912(2) 0.69741(16) 0.0359(6) Uiso 1.000000 R
 C5 C 0.1353(2) 0.8589(2) 0.81256(15) 0.0216(4) Uani 1.000000 .
 H5a H 0.2059(2) 0.8622(2) 0.89945(15) 0.0325(6) Uiso 1.000000 R
 C6 C -0.0143(2) 0.9763(2) 0.80000(14) 0.0190(3) Uani 1.000000 .
 H6 H 0.0370(2) 1.0767(2) 0.82705(14) 0.0286(5) Uiso 1.000000 R
 C7 C -0.1305(2) 1.1416(2) 0.62438(14) 0.0180(3) Uani 1.000000 .
 C8 C 0.0435(2) 1.2036(2) 0.60318(16) 0.0240(4) Uani 1.000000 .
 H8a H 0.1243(2) 1.2204(2) 0.68410(16) 0.0361(6) Uiso 1.000000 R
 H8b H 0.0233(2) 1.3012(2) 0.55964(16) 0.0361(6) Uiso 1.000000 R
 C9 C -0.2857(2) 1.1433(2) 0.50709(14) 0.0189(3) Uani 1.000000 .
 H9a H -0.2734(2) 1.2354(2) 0.45812(14) 0.0283(5) Uiso 1.000000 R
 C10 C -0.4447(2) 1.1669(2) 0.56547(15) 0.0211(3) Uani 1.000000 .
 H10a H -0.4809(2) 1.0690(2) 0.59605(15) 0.0316(5) Uiso 1.000000 R
 C11 C -0.3723(2) 1.2726(2) 0.67597(15) 0.0217(4) Uani 1.000000 .
 H11 H -0.3886(2) 1.3792(2) 0.64711(15) 0.0326(6) Uiso 1.000000 R
 C12 C -0.4528(2) 1.2522(2) 0.78938(17) 0.0298(4) Uani 1.000000 .
 H12a H -0.5714(2) 1.2942(2) 0.76989(17) 0.0447(7) Uiso 1.000000 R
 H12b H -0.3840(2) 1.3100(2) 0.85975(17) 0.0447(7) Uiso 1.000000 R

loop_
  _atom_site_aniso_label
  _atom_site_aniso_U_11
  _atom_site_aniso_U_22
  _atom_site_aniso_U_33
  _atom_site_aniso_U_12
  _atom_site_aniso_U_13
  _atom_site_aniso_U_23
 O1 0.0266(6) 0.0207(8) 0.0227(6) -0.0005(5) 0.0104(5) -0.0000(5)
 O2 0.0466(9) 0.0373(10) 0.0265(6) 0.0076(7) 0.0152(6) 0.0052(6)
 O3 0.0497(9) 0.0209(9) 0.0669(10) -0.0097(8) 0.0261(8) -0.0068(8)
 O4 0.0538(9) 0.0298(9) 0.0371(8) 0.0201(7) 0.0229(7) 0.0106(7)
 O5 0.0226(6) 0.0319(9) 0.0314(6) 0.0008(6) 0.0096(5) 0.0011(6)
 O6 0.0170(5) 0.0227(7) 0.0261(5) 0.0022(5) 0.0033(4) -0.0069(5)
 O7 0.0284(7) 0.0411(9) 0.0368(7) 0.0018(6) 0.0132(6) 0.0077(7)
 O8 0.0213(6) 0.0333(9) 0.0325(7) 0.0046(6) 0.0010(5) 0.0058(6)
 O9 0.0298(6) 0.0240(8) 0.0224(6) -0.0024(6) 0.0057(5) -0.0050(5)
 O10 0.0245(6) 0.0357(9) 0.0318(6) 0.0025(6) 0.0139(5) 0.0041(6)
 O11 0.0213(5) 0.0163(7) 0.0181(5) -0.0017(5) 0.0030(4) 0.0011(5)
 C1 0.0254(9) 0.0225(10) 0.0219(7) -0.0039(7) 0.0059(6) 0.0002(7)
 C2 0.0271(9) 0.0341(13) 0.0315(9) 0.0000(8) 0.0111(7) 0.0067(9)
 C3 0.0317(9) 0.0195(10) 0.0260(8) -0.0015(8) 0.0090(7) -0.0009(7)
 C4 0.0319(9) 0.0200(11) 0.0208(7) 0.0050(7) 0.0081(6) 0.0016(7)
 C5 0.0211(8) 0.0241(11) 0.0194(7) 0.0018(7) 0.0037(6) 0.0018(7)
 C6 0.0193(7) 0.0203(10) 0.0178(7) -0.0005(7) 0.0046(5) 0.0002(7)
 C7 0.0174(7) 0.0164(9) 0.0206(7) 0.0004(7) 0.0055(5) 0.0006(7)
 C8 0.0169(8) 0.0249(11) 0.0308(8) -0.0046(7) 0.0066(6) 0.0013(8)
 C9 0.0197(7) 0.0181(9) 0.0190(7) -0.0018(7) 0.0048(5) 0.0009(6)
 C10 0.0166(7) 0.0235(10) 0.0231(7) 0.0012(7) 0.0044(6) 0.0042(7)
 C11 0.0181(8) 0.0202(11) 0.0275(8) 0.0033(7) 0.0064(6) -0.0002(7)
 C12 0.0270(9) 0.0335(13) 0.0320(9) 0.0021(9) 0.0130(7) -0.0036(9)

loop_
_geom_bond_atom_site_label_1
_geom_bond_atom_site_label_2
_geom_bond_distance
_geom_bond_site_symmetry_2
_geom_bond_publ_flag
 O1 C1 1.447(2) . ?
 O1 C6 1.4171(19) . ?
 O2 H2 0.8200 . ?
 O2 C2 1.423(2) . ?
 O3 H3 0.8200 . ?
 O3 C3 1.413(3) . ?
 O4 H4 0.8200 . ?
 O4 C4 1.432(2) . ?
 O5 H5 0.8200 . ?
 O5 C5 1.436(2) . ?
 O6 C7 1.409(2) . ?
 O6 C11 1.4593(19) . ?
 O7 H7 0.8200 . ?
 O7 C12 1.431(3) . ?
 O8 H8 0.8200 . ?
 O8 C10 1.432(2) . ?
 O9 H9 0.8200 . ?
 O9 C9 1.408(2) . ?
 O10 H10 0.8200 . ?
 O10 C8 1.434(2) . ?
 O11 C6 1.4296(18) . ?
 O11 C7 1.440(2) . ?
 C1 H1 0.9800 . ?
 C1 C2 1.522(2) . ?
 C1 C3 1.523(3) . ?
 C2 H2a 0.9700 . ?
 C2 H2b 0.9700 . ?
 C3 H3a 0.9800 . ?
 C3 C4 1.531(2) . ?
 C4 H4a 0.9800 . ?
 C4 C5 1.508(3) . ?
 C5 H5a 0.9800 . ?
 C5 C6 1.532(2) . ?
 C6 H6 0.9800 . ?
 C7 C8 1.521(2) . ?
 C7 C9 1.545(2) . ?
 C8 H8a 0.9700 . ?
 C8 H8b 0.9700 . ?
 C9 H9a 0.9800 . ?
 C9 C10 1.525(2) . ?
 C10 H10a 0.9800 . ?
 C10 C11 1.518(3) . ?
 C11 H11 0.9800 . ?
 C11 C12 1.513(2) . ?
 C12 H12a 0.9700 . ?
 C12 H12b 0.9700 . ?